data/sourcebus_11000.trafo_75617346_75617346/voltage_profile.csv
Bus, BasekV, Node1, Magnitude1, Angle1, pu1, Node2, Magnitude2, Angle2, pu2, Node3, Magnitude3, Angle3, pu3
"TRAFO_75617346_75617346", 11, 1,    6350.85,    0.0,         1, 2,    6350.85, -120.0,         1, 3,    6350.85,  120.0,         1
"3102751", 0.4, 1,          0,    0.0,         0, 2,          0,    0.0,         0, 3,          0,    0.0,         0
"3102961", 0.4, 1,          0,    0.0,         0, 2,          0,    0.0,         0, 3,          0,    0.0,         0
"3104390", 0.4, 2,          0,    0.0,         0, 0, 0, 0, 0, 0, 0, 0, 0
"3103520", 0.4, 1,          0,    0.0,         0, 2,          0,    0.0,         0, 3,          0,    0.0,         0
"3106087", 0.4, 1,          0,    0.0,         0, 0, 0, 0, 0, 0, 0, 0, 0
"3103521", 0.4, 2,          0,    0.0,         0, 0, 0, 0, 0, 0, 0, 0, 0
"3106088", 0.4, 2,          0,    0.0,         0, 0, 0, 0, 0, 0, 0, 0, 0
"3103686", 0.4, 2,          0,    0.0,         0, 0, 0, 0, 0, 0, 0, 0, 0
"3106259", 0.4, 2,          0,    0.0,         0, 0, 0, 0, 0, 0, 0, 0, 0
"3103768", 0.4, 1,          0,    0.0,         0, 2,          0,    0.0,         0, 3,          0,    0.0,         0
"3106340", 0.4, 1,          0,    0.0,         0, 0, 0, 0, 0, 0, 0, 0, 0
"3104767", 0.4, 2,          0,    0.0,         0, 0, 0, 0, 0, 0, 0, 0, 0
"3107901", 0.4, 2,          0,    0.0,         0, 0, 0, 0, 0, 0, 0, 0, 0
"3108550", 0.4, 3,          0,    0.0,         0, 0, 0, 0, 0, 0, 0, 0, 0
"3108551", 0.4, 2,          0,    0.0,         0, 0, 0, 0, 0, 0, 0, 0, 0
"3108561", 0.4, 2,          0,    0.0,         0, 0, 0, 0, 0, 0, 0, 0, 0
"3108673", 0.4, 1,          0,    0.0,         0, 0, 0, 0, 0, 0, 0, 0, 0
"SOURCEBUS_11000", 0.4, 1,          0,    0.0,         0, 2,          0,    0.0,         0, 3,          0,    0.0,         0
